data/nesta/nesta_case162_ieee_dtc__api.m
%%%%%%%%%%%%%%%%%%%%%%%%%%%%%%%%%%%%%%%%%%%%%%%%%%%%%%%%%%%%%%%%%%%%%%%%%%%
%%%%                                                                  %%%%%
%%%%      NICTA Energy System Test Case Archive (NESTA) - v0.1.5      %%%%%
%%%%            Optimal Power Flow - Active Power Increase            %%%%%
%%%%                       30 - October - 2014                        %%%%%
%%%%                                                                  %%%%%
%%%%%%%%%%%%%%%%%%%%%%%%%%%%%%%%%%%%%%%%%%%%%%%%%%%%%%%%%%%%%%%%%%%%%%%%%%%
function mpc = nesta_case162_ieee_dtc__api
mpc.version = '2';
mpc.baseMVA = 100.0;

%% bus data
%	bus_i	type	Pd	Qd	Gs	Bs	area	Vm	Va	baseKV	zone	Vmax	Vmin
mpc.bus = [
	1	 1	 0.00	 0.00	 0.0	 -100.0	 1	     1.0326	   -25.3300	 345.0	 9	     1.0600	     0.9400;
	2	 1	 0.00	 0.00	 0.0	 0.0	 1	     1.0224	   -29.9900	 345.0	 9	     1.0600	     0.9400;
	3	 1	 404.97	 96.90	 0.0	 0.0	 1	     0.9999	   -32.4900	 161.0	 12	     1.0600	     0.9400;
	4	 1	 0.00	 0.00	 0.0	 0.0	 1	     1.0190	   -33.7400	 345.0	 3	     1.0600	     0.9400;
	5	 1	 0.00	 0.00	 0.0	 -50.0	 1	     1.0339	   -24.5100	 345.0	 8	     1.0600	     0.9400;
	6	 2	 0.00	 0.00	 0.0	 0.0	 1	     1.0000	   -19.1500	 22.0	 9	     1.0600	     0.9400;
	7	 1	 0.00	 0.00	 0.0	 0.0	 1	     1.0187	   -30.3800	 345.0	 9	     1.0600	     0.9400;
	8	 1	 398.00	 0.00	 0.0	 0.0	 1	     1.0344	   -33.8100	 115.0	 12	     1.0600	     0.9400;
	9	 1	 0.00	 0.00	 0.0	 0.0	 1	     1.0263	   -27.7600	 345.0	 8	     1.0600	     0.9400;
	10	 1	 226.00	 0.00	 0.0	 0.0	 1	     0.9928	   -35.6900	 230.0	 12	     1.0600	     0.9400;
	11	 1	 0.00	 0.00	 0.0	 0.0	 1	     0.9996	   -31.8300	 230.0	 10	     1.0600	     0.9400;
	12	 1	 193.00	 0.00	 0.0	 0.0	 1	     1.0379	   -33.6600	 115.0	 12	     1.0600	     0.9400;
	13	 1	 204.00	 0.00	 0.0	 0.0	 1	     1.0147	   -30.6700	 345.0	 12	     1.0600	     0.9400;
	14	 1	 381.00	 0.00	 0.0	 0.0	 1	     1.0280	   -31.0300	 161.0	 12	     1.0600	     0.9400;
	15	 1	 -80.00	 0.00	 0.0	 0.0	 1	     1.0185	   -24.5200	 230.0	 12	     1.0600	     0.9400;
	16	 1	 -54.20	 0.00	 0.0	 0.0	 1	     1.0141	   -29.5800	 161.0	 12	     1.0600	     0.9400;
	17	 1	 -116.50	 0.00	 0.0	 0.0	 1	     1.0059	   -28.8000	 161.0	 12	     1.0600	     0.9400;
	18	 1	 37.65	 11.67	 0.0	 0.0	 1	     1.0353	   -33.7500	 161.0	 6	     1.0600	     0.9400;
	19	 1	 64.40	 0.00	 0.0	 0.0	 1	     0.9993	   -38.0500	 161.0	 12	     1.0600	     0.9400;
	20	 1	 41.48	 12.50	 0.0	 0.0	 1	     0.9793	   -32.6900	 69.0	 10	     1.0600	     0.9400;
	21	 1	 -69.80	 0.00	 0.0	 0.0	 1	     1.0080	   -30.4200	 161.0	 12	     1.0600	     0.9400;
	22	 1	 19.03	 5.27	 0.0	 0.0	 1	     1.0336	   -37.6300	 161.0	 6	     1.0600	     0.9400;
	23	 1	 63.50	 0.00	 0.0	 0.0	 1	     0.9881	   -34.8500	 161.0	 12	     1.0600	     0.9400;
	24	 1	 0.00	 0.00	 0.0	 0.0	 1	     1.0091	   -33.3200	 161.0	 6	     1.0600	     0.9400;
	25	 1	 0.00	 0.00	 0.0	 -50.0	 1	     1.0012	   -29.3700	 345.0	 6	     1.0600	     0.9400;
	26	 1	 0.00	 0.00	 0.0	 -50.0	 1	     1.0323	   -21.4900	 345.0	 1	     1.0600	     0.9400;
	27	 1	 354.63	 57.90	 0.0	 0.0	 1	     0.9978	   -30.3900	 345.0	 12	     1.0600	     0.9400;
	28	 1	 42.11	 13.17	 0.0	 0.0	 1	     0.9882	   -36.1300	 161.0	 6	     1.0600	     0.9400;
	29	 1	 30.99	 9.03	 0.0	 0.0	 1	     0.9879	   -37.9300	 161.0	 6	     1.0600	     0.9400;
	30	 1	 110.77	 32.52	 0.0	 15.0	 1	     0.9978	   -39.8100	 161.0	 6	     1.0600	     0.9400;
	31	 1	 72.50	 0.00	 0.0	 0.0	 1	     0.9902	   -37.0700	 161.0	 12	     1.0600	     0.9400;
	32	 1	 57.68	 15.06	 0.0	 20.0	 1	     1.0046	   -41.0800	 161.0	 6	     1.0600	     0.9400;
	33	 1	 49.44	 15.06	 0.0	 20.0	 1	     0.9980	   -43.0100	 161.0	 6	     1.0600	     0.9400;
	34	 1	 15.52	 5.25	 0.0	 3.2	 1	     0.9984	   -43.0000	 161.0	 1	     1.0600	     0.9400;
	35	 1	 59.63	 14.63	 0.0	 5.0	 1	     0.9891	   -44.4400	 161.0	 1	     1.0600	     0.9400;
	36	 1	 34.98	 8.68	 0.0	 3.0	 1	     0.9957	   -43.1600	 161.0	 2	     1.0600	     0.9400;
	37	 1	 0.00	 0.00	 0.0	 0.0	 1	     0.9868	   -30.5800	 345.0	 11	     1.0600	     0.9400;
	38	 1	 16.16	 4.08	 0.0	 1.5	 1	     1.0185	   -38.1500	 161.0	 2	     1.0600	     0.9400;
	39	 1	 0.00	 0.00	 0.0	 0.0	 1	     0.9874	   -33.2200	 345.0	 6	     1.0600	     0.9400;
	40	 1	 57.88	 17.60	 0.0	 0.0	 1	     0.9997	   -42.0600	 161.0	 1	     1.0600	     0.9400;
	41	 1	 42.91	 12.80	 0.0	 0.0	 1	     1.0074	   -40.2100	 161.0	 1	     1.0600	     0.9400;
	42	 1	 0.00	 0.00	 0.0	 0.0	 1	     1.0036	   -33.0300	 345.0	 2	     1.0600	     0.9400;
	43	 1	 41.50	 0.00	 0.0	 0.0	 1	     1.0118	   -35.6400	 161.0	 12	     1.0600	     0.9400;
	44	 1	 17.86	 3.71	 0.0	 0.0	 1	     1.0071	   -36.1600	 161.0	 2	     1.0600	     0.9400;
	45	 1	 21.91	 5.41	 0.0	 1.9	 1	     0.9955	   -36.2200	 161.0	 2	     1.0600	     0.9400;
	46	 1	 71.48	 22.30	 0.0	 26.2	 1	     0.9988	   -38.9600	 161.0	 10	     1.0600	     0.9400;
	47	 1	 5.28	 1.56	 0.0	 0.0	 1	     0.9907	   -41.6800	 161.0	 2	     1.0600	     0.9400;
	48	 1	 36.95	 22.86	 0.0	 0.0	 1	     0.9997	   -40.6000	 161.0	 10	     1.0600	     0.9400;
	49	 1	 7.46	 1.78	 0.0	 0.0	 1	     0.9886	   -42.0000	 161.0	 2	     1.0600	     0.9400;
	50	 1	 99.70	 0.00	 0.0	 0.0	 1	     0.9961	   -39.5000	 161.0	 12	     1.0600	     0.9400;
	51	 1	 0.00	 0.00	 0.0	 0.0	 1	     0.9915	   -38.2300	 161.0	 3	     1.0600	     0.9400;
	52	 1	 238.83	 42.80	 0.0	 0.0	 1	     1.0148	   -39.3300	 161.0	 3	     1.0600	     0.9400;
	53	 1	 0.00	 0.00	 0.0	 0.0	 1	     0.9954	   -30.6800	 161.0	 10	     1.0600	     0.9400;
	54	 1	 76.99	 29.57	 0.0	 0.0	 1	     0.9885	   -37.8700	 161.0	 10	     1.0600	     0.9400;
	55	 1	 0.00	 0.00	 0.0	 0.0	 1	     0.9960	   -30.3900	 161.0	 1	     1.0600	     0.9400;
	56	 1	 27.68	 7.26	 0.0	 3.2	 1	     0.9914	   -40.5000	 161.0	 7	     1.0600	     0.9400;
	57	 1	 53.06	 15.61	 0.0	 0.0	 1	     0.9975	   -37.5400	 161.0	 1	     1.0600	     0.9400;
	58	 1	 0.00	 0.00	 0.0	 0.0	 1	     1.0085	   -28.6900	 230.0	 10	     1.0600	     0.9400;
	59	 1	 92.41	 27.05	 0.0	 0.0	 1	     0.9842	   -33.0300	 230.0	 10	     1.0600	     0.9400;
	60	 1	 244.00	 0.00	 0.0	 0.0	 1	     0.9922	   -34.0100	 115.0	 12	     1.0600	     0.9400;
	61	 1	 0.00	 0.00	 0.0	 0.0	 1	     0.9833	   -31.4300	 230.0	 10	     1.0600	     0.9400;
	62	 1	 -865.60	 0.00	 0.0	 0.0	 1	     1.0235	   -18.4700	 230.0	 12	     1.0600	     0.9400;
	63	 1	 59.10	 0.00	 0.0	 0.0	 1	     0.9882	   -29.7700	 230.0	 12	     1.0600	     0.9400;
	64	 1	 0.00	 0.00	 0.0	 0.0	 1	     1.0152	   -28.8900	 345.0	 10	     1.0600	     0.9400;
	65	 1	 -26.30	 0.00	 0.0	 0.0	 1	     0.9965	   -25.3200	 345.0	 12	     1.0600	     0.9400;
	66	 1	 0.00	 0.00	 0.0	 -50.0	 1	     1.0004	   -31.1200	 345.0	 10	     1.0600	     0.9400;
	67	 1	 24.67	 7.03	 0.0	 6.0	 1	     0.9998	   -41.7400	 161.0	 7	     1.0600	     0.9400;
	68	 1	 44.24	 12.68	 0.0	 12.0	 1	     1.0134	   -40.2400	 161.0	 7	     1.0600	     0.9400;
	69	 1	 0.00	 0.00	 0.0	 0.0	 1	     1.0202	   -38.9200	 161.0	 1	     1.0600	     0.9400;
	70	 1	 0.00	 0.00	 0.0	 0.0	 1	     1.0263	   -23.5800	 161.0	 1	     1.0600	     0.9400;
	71	 1	 32.69	 11.93	 0.0	 12.0	 1	     0.9922	   -31.7800	 161.0	 1	     1.0600	     0.9400;
	72	 1	 427.00	 0.00	 0.0	 0.0	 1	     1.0167	   -30.7800	 161.0	 12	     1.0600	     0.9400;
	73	 2	 0.00	 0.00	 0.0	 0.0	 1	     1.0000	   -18.4600	 20.0	 1	     1.0600	     0.9400;
	74	 1	 0.00	 0.00	 0.0	 0.0	 1	     1.0116	   -33.5700	 345.0	 5	     1.0600	     0.9400;
	75	 1	 0.00	 0.00	 0.0	 -50.0	 1	     1.0299	   -25.4300	 345.0	 8	     1.0600	     0.9400;
	76	 2	 0.00	 0.00	 0.0	 0.0	 1	     1.0000	   -16.4900	 24.0	 1	     1.0600	     0.9400;
	77	 1	 28.91	 8.78	 0.0	 4.7	 1	     1.0111	   -40.4900	 161.0	 1	     1.0600	     0.9400;
	78	 1	 79.12	 0.00	 0.0	 0.0	 1	     1.0229	   -38.2400	 161.0	 5	     1.0600	     0.9400;
	79	 1	 0.00	 0.00	 0.0	 0.0	 1	     1.0317	   -36.1900	 161.0	 5	     1.0600	     0.9400;
	80	 1	 17.25	 5.25	 0.0	 2.8	 1	     1.0099	   -38.3600	 161.0	 1	     1.0600	     0.9400;
	81	 1	 55.69	 16.80	 0.0	 22.1	 1	     1.0009	   -46.4300	 69.0	 1	     1.0600	     0.9400;
	82	 1	 68.17	 20.26	 0.0	 10.4	 1	     0.9988	   -42.0300	 161.0	 1	     1.0600	     0.9400;
	83	 1	 0.00	 0.00	 0.0	 0.0	 1	     1.0031	   -41.1300	 161.0	 1	     1.0600	     0.9400;
	84	 1	 41.48	 9.49	 0.0	 2.6	 1	     1.0097	   -37.7700	 161.0	 2	     1.0600	     0.9400;
	85	 1	 44.35	 11.26	 0.0	 12.0	 1	     0.9706	   -41.0700	 161.0	 1	     1.0600	     0.9400;
	86	 1	 55.53	 13.35	 0.0	 12.0	 1	     0.9696	   -45.0000	 161.0	 2	     1.0600	     0.9400;
	87	 1	 18.51	 4.23	 0.0	 0.0	 1	     0.9799	   -43.5500	 115.0	 2	     1.0600	     0.9400;
	88	 1	 66.33	 4.44	 0.0	 0.0	 1	     0.9889	   -44.7700	 69.0	 4	     1.0600	     0.9400;
	89	 1	 0.00	 0.00	 0.0	 0.0	 1	     0.9910	   -46.1700	 115.0	 2	     1.0600	     0.9400;
	90	 1	 54.96	 16.76	 0.0	 10.0	 1	     0.9611	   -48.6600	 115.0	 2	     1.0600	     0.9400;
	91	 1	 56.08	 12.83	 0.0	 0.0	 1	     1.0121	   -36.5500	 161.0	 2	     1.0600	     0.9400;
	92	 1	 39.53	 9.05	 0.0	 0.0	 1	     1.0023	   -37.5200	 161.0	 2	     1.0600	     0.9400;
	93	 1	 113.61	 34.56	 0.0	 0.0	 1	     1.0290	   -32.6600	 161.0	 2	     1.0600	     0.9400;
	94	 1	 179.50	 6.49	 0.0	 0.0	 1	     1.0262	   -36.9400	 161.0	 5	     1.0600	     0.9400;
	95	 1	 128.28	 39.01	 0.0	 0.0	 1	     1.0300	   -36.5600	 115.0	 2	     1.0600	     0.9400;
	96	 1	 119.20	 0.00	 0.0	 0.0	 1	     1.0011	   -45.0800	 115.0	 2	     1.0600	     0.9400;
	97	 1	 25.00	 5.71	 0.0	 0.0	 1	     1.0266	   -37.2200	 115.0	 2	     1.0600	     0.9400;
	98	 1	 165.38	 50.35	 0.0	 0.0	 1	     1.0443	   -35.3200	 115.0	 2	     1.0600	     0.9400;
	99	 2	 0.00	 0.00	 0.0	 0.0	 1	     1.0000	   -31.4100	 18.0	 2	     1.0600	     0.9400;
	100	 1	 25.40	 6.90	 0.0	 3.0	 1	     0.9871	   -45.8400	 115.0	 2	     1.0600	     0.9400;
	101	 2	 0.00	 0.00	 0.0	 0.0	 1	     1.0000	   -40.0900	 14.0	 2	     1.0600	     0.9400;
	102	 1	 18.10	 4.08	 0.0	 0.0	 1	     1.0032	   -37.0300	 161.0	 2	     1.0600	     0.9400;
	103	 1	 322.00	 0.00	 0.0	 0.0	 1	     1.0150	   -34.6800	 161.0	 12	     1.0600	     0.9400;
	104	 1	 34.50	 10.46	 0.0	 5.6	 1	     0.9927	   -44.6400	 115.0	 2	     1.0600	     0.9400;
	105	 1	 27.19	 6.23	 0.0	 1.7	 1	     1.0338	   -38.5900	 115.0	 2	     1.0600	     0.9400;
	106	 1	 0.00	 0.00	 0.0	 0.0	 1	     0.9946	   -43.0100	 161.0	 4	     1.0600	     0.9400;
	107	 1	 38.76	 5.41	 0.0	 0.0	 1	     0.9908	   -43.9000	 161.0	 4	     1.0600	     0.9400;
	108	 3	 0.00	 0.00	 0.0	 0.0	 1	     1.0000	   -27.6900	 22.0	 2	     1.0600	     0.9400;
	109	 1	 0.00	 0.00	 0.0	 0.0	 1	     1.0134	   -33.0500	 345.0	 5	     1.0600	     0.9400;
	110	 1	 0.00	 0.00	 0.0	 0.0	 1	     1.0273	   -29.5200	 161.0	 3	     1.0600	     0.9400;
	111	 1	 71.59	 16.72	 0.0	 0.0	 1	     1.0054	   -33.9300	 161.0	 3	     1.0600	     0.9400;
	112	 1	 0.00	 0.00	 0.0	 -50.0	 1	     1.0272	   -27.0100	 345.0	 3	     1.0600	     0.9400;
	113	 1	 32.70	 0.00	 0.0	 0.0	 1	     1.0252	   -30.9500	 161.0	 12	     1.0600	     0.9400;
	114	 2	 0.00	 0.00	 0.0	 0.0	 1	     1.0000	   -23.6800	 14.0	 3	     1.0600	     0.9400;
	115	 1	 18.96	 3.34	 0.0	 0.0	 1	     1.0174	   -36.0500	 161.0	 3	     1.0600	     0.9400;
	116	 1	 61.38	 11.20	 0.0	 0.0	 1	     1.0240	   -37.2900	 161.0	 3	     1.0600	     0.9400;
	117	 1	 111.53	 20.06	 0.0	 0.0	 1	     1.0140	   -37.9500	 161.0	 3	     1.0600	     0.9400;
	118	 2	 0.00	 0.00	 0.0	 0.0	 1	     1.0000	   -34.0300	 14.0	 3	     1.0600	     0.9400;
	119	 1	 0.00	 0.00	 0.0	 0.0	 1	     1.0097	   -35.2600	 345.0	 3	     1.0600	     0.9400;
	120	 1	 0.00	 0.00	 0.0	 0.0	 1	     1.0238	   -27.3700	 345.0	 8	     1.0600	     0.9400;
	121	 2	 0.00	 0.00	 0.0	 0.0	 1	     1.0000	   -20.1000	 24.0	 3	     1.0600	     0.9400;
	122	 1	 51.75	 9.36	 0.0	 0.0	 1	     0.9885	   -45.8400	 161.0	 3	     1.0600	     0.9400;
	123	 1	 165.00	 0.00	 0.0	 0.0	 1	     0.9997	   -46.2000	 161.0	 12	     1.0600	     0.9400;
	124	 1	 -571.00	 90.90	 0.0	 0.0	 1	     1.0089	   -31.0200	 345.0	 12	     1.0600	     0.9400;
	125	 2	 2000.00	 0.00	 0.0	 0.0	 1	     1.0200	   -29.3400	 345.0	 12	     1.0600	     0.9400;
	126	 1	 -467.00	 0.00	 0.0	 0.0	 1	     1.0109	   -26.5900	 345.0	 12	     1.0600	     0.9400;
	127	 1	 -52.60	 0.00	 0.0	 0.0	 1	     0.9848	   -29.5400	 345.0	 12	     1.0600	     0.9400;
	128	 1	 0.00	 0.00	 0.0	 0.0	 1	     1.0239	   -27.2700	 345.0	 8	     1.0600	     0.9400;
	129	 1	 0.00	 0.00	 0.0	 0.0	 1	     1.0243	   -27.4900	 345.0	 8	     1.0600	     0.9400;
	130	 2	 0.00	 0.00	 0.0	 0.0	 1	     1.0300	   -19.3500	 22.0	 8	     1.0600	     0.9400;
	131	 2	 0.00	 0.00	 0.0	 0.0	 1	     1.0180	   -20.4300	 18.0	 8	     1.0600	     0.9400;
	132	 1	 159.00	 0.00	 0.0	 0.0	 1	     1.0199	   -30.3600	 161.0	 12	     1.0600	     0.9400;
	133	 1	 32.95	 6.02	 0.0	 0.0	 1	     1.0352	   -32.1900	 69.0	 3	     1.0600	     0.9400;
	134	 1	 19.11	 3.34	 0.0	 0.0	 1	     1.0231	   -30.8600	 161.0	 3	     1.0600	     0.9400;
	135	 1	 21.96	 4.01	 0.0	 0.0	 1	     1.0320	   -32.2300	 69.0	 3	     1.0600	     0.9400;
	136	 1	 21.96	 4.01	 0.0	 0.0	 1	     1.0254	   -32.5000	 69.0	 3	     1.0600	     0.9400;
	137	 1	 21.96	 4.01	 0.0	 0.0	 1	     1.0290	   -32.4600	 69.0	 3	     1.0600	     0.9400;
	138	 1	 0.00	 0.00	 0.0	 0.0	 1	     1.0315	   -31.2800	 69.0	 3	     1.0600	     0.9400;
	139	 1	 11.05	 2.01	 0.0	 0.0	 1	     1.0265	   -32.0500	 69.0	 3	     1.0600	     0.9400;
	140	 1	 14.86	 2.68	 0.0	 0.0	 1	     1.0285	   -32.3900	 69.0	 3	     1.0600	     0.9400;
	141	 1	 0.00	 0.00	 0.0	 0.0	 1	     1.0026	   -33.9100	 161.0	 3	     1.0600	     0.9400;
	142	 1	 29.65	 5.35	 0.0	 0.0	 1	     1.0275	   -40.6300	 69.0	 3	     1.0600	     0.9400;
	143	 1	 23.06	 4.01	 0.0	 0.0	 1	     1.0056	   -39.4300	 69.0	 3	     1.0600	     0.9400;
	144	 1	 13.54	 2.01	 0.0	 0.0	 1	     1.0220	   -36.1700	 69.0	 3	     1.0600	     0.9400;
	145	 1	 11.85	 2.21	 0.0	 0.0	 1	     1.0189	   -34.4000	 69.0	 3	     1.0600	     0.9400;
	146	 1	 23.35	 4.01	 0.0	 0.0	 1	     1.0098	   -39.8900	 69.0	 3	     1.0600	     0.9400;
	147	 1	 236.86	 42.80	 0.0	 0.0	 1	     1.0102	   -38.9800	 161.0	 3	     1.0600	     0.9400;
	148	 1	 131.34	 24.00	 0.0	 0.0	 1	     1.0132	   -40.0100	 69.0	 3	     1.0600	     0.9400;
	149	 1	 0.00	 0.00	 0.0	 0.0	 1	     1.0257	   -23.7600	 161.0	 1	     1.0600	     0.9400;
	150	 1	 5.25	 1.60	 0.0	 0.0	 1	     1.0232	   -24.4100	 161.0	 1	     1.0600	     0.9400;
	151	 1	 26.27	 8.00	 0.0	 0.0	 1	     1.0098	   -26.7000	 161.0	 1	     1.0600	     0.9400;
	152	 1	 6.00	 0.00	 0.0	 0.0	 1	     1.0232	   -26.7900	 161.0	 12	     1.0600	     0.9400;
	153	 1	 4.38	 1.60	 0.0	 0.0	 1	     1.0176	   -25.8000	 69.0	 1	     1.0600	     0.9400;
	154	 1	 30.65	 9.60	 0.0	 6.0	 1	     0.9749	   -32.1000	 69.0	 1	     1.0600	     0.9400;
	155	 1	 13.13	 4.00	 0.0	 0.0	 1	     0.9852	   -30.2700	 69.0	 1	     1.0600	     0.9400;
	156	 1	 8.76	 2.40	 0.0	 0.0	 1	     0.9785	   -31.7900	 69.0	 1	     1.0600	     0.9400;
	157	 1	 35.02	 10.40	 0.0	 0.0	 1	     0.9800	   -32.5500	 69.0	 1	     1.0600	     0.9400;
	158	 1	 17.51	 5.60	 0.0	 3.0	 1	     0.9681	   -33.4900	 69.0	 1	     1.0600	     0.9400;
	159	 1	 8.76	 2.40	 0.0	 0.0	 1	     0.9684	   -33.3300	 69.0	 1	     1.0600	     0.9400;
	160	 1	 15.76	 4.80	 0.0	 3.0	 1	     0.9712	   -32.7600	 69.0	 1	     1.0600	     0.9400;
	161	 1	 35.02	 10.40	 0.0	 0.0	 1	     1.0038	   -28.1000	 161.0	 1	     1.0600	     0.9400;
	162	 1	 21.89	 6.40	 0.0	 0.0	 1	     1.0002	   -28.9700	 161.0	 1	     1.0600	     0.9400;
];

%% generator data
%	bus	Pg	Qg	Qmax	Qmin	Vg	mBase	status	Pmax	Pmin	Pc1	Pc2	Qc1min	Qc1max	Qc2min	Qc2max	ramp_agc	ramp_10	ramp_30	ramp_q	apf
mpc.gen = [
	6	 883.0	 172.0	 602.0	 -602.0	 1.0	 100.0	 1	 1203	 0.0	 0.0	 0.0	 0.0	 0.0	 0.0	 0.0	 0.0	 0.0	 0.0	 0.0	 0.0; % NUC
	73	 398.0	 150.0	 267.0	 -234.0	 1.0	 100.0	 1	 468	 0.0	 0.0	 0.0	 0.0	 0.0	 0.0	 0.0	 0.0	 0.0	 0.0	 0.0	 0.0; % NG
	76	 1248.0	 66.0	 637.0	 -637.0	 1.0	 100.0	 1	 1274	 0.0	 0.0	 0.0	 0.0	 0.0	 0.0	 0.0	 0.0	 0.0	 0.0	 0.0	 0.0; % COW
	99	 143.0	 48.0	 115.0	 -115.0	 1.0	 100.0	 1	 229	 0.0	 0.0	 0.0	 0.0	 0.0	 0.0	 0.0	 0.0	 0.0	 0.0	 0.0	 0.0; % NG
	101	 83.0	 50.0	 84.0	 -84.0	 1.0	 100.0	 1	 167	 0.0	 0.0	 0.0	 0.0	 0.0	 0.0	 0.0	 0.0	 0.0	 0.0	 0.0	 0.0; % NG
	108	 599.0	 44.0	 921.0	 -921.0	 1.0	 100.0	 1	 1842	 0.0	 0.0	 0.0	 0.0	 0.0	 0.0	 0.0	 0.0	 0.0	 0.0	 0.0	 0.0; % COW
	114	 140.0	 55.0	 100.0	 -100.0	 1.0	 100.0	 1	 199	 0.0	 0.0	 0.0	 0.0	 0.0	 0.0	 0.0	 0.0	 0.0	 0.0	 0.0	 0.0; % NG
	118	 173.0	 102.0	 122.4	 -122.4	 1.0	 100.0	 1	 175	 0.0	 0.0	 0.0	 0.0	 0.0	 0.0	 0.0	 0.0	 0.0	 0.0	 0.0	 0.0; % NG
	121	 684.0	 226.0	 830.0	 -830.0	 1.0	 100.0	 1	 1660	 0.0	 0.0	 0.0	 0.0	 0.0	 0.0	 0.0	 0.0	 0.0	 0.0	 0.0	 0.0; % COW
	125	 2223.0	 110.0	 1295.0	 -1138.0	 1.02	 100.0	 1	 2276	 0.0	 0.0	 0.0	 0.0	 0.0	 0.0	 0.0	 0.0	 0.0	 0.0	 0.0	 0.0; % COW
	130	 569.0	 103.0	 321.0	 -321.0	 1.03	 100.0	 1	 642	 0.0	 0.0	 0.0	 0.0	 0.0	 0.0	 0.0	 0.0	 0.0	 0.0	 0.0	 0.0; % NG
	131	 690.0	 167.0	 390.0	 -390.0	 1.018	 100.0	 1	 779	 0.0	 0.0	 0.0	 0.0	 0.0	 0.0	 0.0	 0.0	 0.0	 0.0	 0.0	 0.0; % NG
];

%% generator cost data
%	2	startup	shutdown	n	c(n-1)	...	c0
mpc.gencost = [
	2	 0.0	 0.0	 3	   0.000000	   0.201355	   0.000000; % NUC
	2	 0.0	 0.0	 3	   0.000000	   1.287901	   0.000000; % NG
	2	 0.0	 0.0	 3	   0.000000	   0.890382	   0.000000; % COW
	2	 0.0	 0.0	 3	   0.000000	   0.928890	   0.000000; % NG
	2	 0.0	 0.0	 3	   0.000000	   0.823495	   0.000000; % NG
	2	 0.0	 0.0	 3	   0.000000	   1.281748	   0.000000; % COW
	2	 0.0	 0.0	 3	   0.000000	   1.060457	   0.000000; % NG
	2	 0.0	 0.0	 3	   0.000000	   1.353039	   0.000000; % NG
	2	 0.0	 0.0	 3	   0.000000	   0.712217	   0.000000; % COW
	2	 0.0	 0.0	 3	   0.000000	   0.590281	   0.000000; % COW
	2	 0.0	 0.0	 3	   0.000000	   1.109857	   0.000000; % NG
	2	 0.0	 0.0	 3	   0.000000	   0.776444	   0.000000; % NG
];

%% branch data
%	fbus	tbus	r	x	b	rateA	rateB	rateC	ratio	angle	status	angmin	angmax
mpc.branch = [
	1	 2	 0.0035	 0.0321	 0.5438	 612.0	 612.0	 612.0	 0.0	 0.0	 1	 -30.0	 30.0;
	1	 3	 0.0034	 0.0326	 0.7224	 894.0	 894.0	 894.0	 0.0	 0.0	 1	 -30.0	 30.0;
	1	 4	 0.0064	 0.0621	 0.987	 469.0	 469.0	 469.0	 0.0	 0.0	 1	 -30.0	 30.0;
	1	 5	 0.0011	 0.0119	 0.2012	 662.0	 662.0	 662.0	 0.0	 0.0	 1	 -30.0	 30.0;
	1	 6	 0.0	 0.0133	 0.0	 900.0	 2205.0	 2205.0	 1.0519	 0.0	 1	 -30.0	 30.0;
	2	 7	 0.0014	 0.0125	 0.2122	 604.0	 604.0	 604.0	 0.0	 0.0	 1	 -30.0	 30.0;
	2	 13	 0.0046	 0.0417	 0.7058	 609.0	 609.0	 609.0	 0.0	 0.0	 1	 -30.0	 30.0;
	3	 14	 0.2361	 1.0122	 0.0	 28.0	 28.0	 28.0	 0.0	 0.0	 1	 -30.0	 30.0;
	3	 50	 0.0389	 0.1699	 0.0	 168.0	 168.0	 168.0	 0.0	 0.0	 1	 -30.0	 30.0;
	3	 103	 0.1074	 1.8023	 0.0	 16.0	 16.0	 16.0	 0.0	 0.0	 1	 -30.0	 30.0;
	3	 123	 0.2883	 1.6719	 0.0	 17.0	 17.0	 17.0	 0.0	 0.0	 1	 -30.0	 30.0;
	3	 124	 0.014	 0.6483	 0.0	 45.0	 45.0	 45.0	 0.0	 0.0	 1	 -30.0	 30.0;
	3	 125	 0.0084	 0.1139	 0.0	 256.0	 256.0	 256.0	 0.0	 0.0	 1	 -30.0	 30.0;
	4	 112	 0.0059	 0.0568	 0.925	 513.0	 513.0	 513.0	 0.0	 0.0	 1	 -30.0	 30.0;
	4	 115	 0.0	 0.0185	 0.0	 500.0	 1585.0	 1585.0	 1.0	 0.0	 1	 -30.0	 30.0;
	4	 119	 0.0014	 0.0119	 0.205	 590.0	 590.0	 590.0	 0.0	 0.0	 1	 -30.0	 30.0;
	5	 120	 0.0022	 0.0224	 0.3792	 643.0	 643.0	 643.0	 0.0	 0.0	 1	 -30.0	 30.0;
	5	 129	 0.0022	 0.0268	 0.4612	 701.0	 701.0	 701.0	 0.0	 0.0	 1	 -30.0	 30.0;
	5	 131	 0.0	 0.0127	 0.0	 710.0	 2309.0	 2309.0	 1.0249	 0.0	 1	 -30.0	 30.0;
	7	 8	 0.0004	 0.0189	 0.0	 672.0	 1551.0	 1551.0	 0.9751	 0.0	 1	 -30.0	 30.0;
	7	 9	 0.0017	 0.0169	 0.2872	 636.0	 636.0	 636.0	 0.0	 0.0	 1	 -30.0	 30.0;
	8	 10	 0.4591	 1.0703	 0.0	 25.0	 25.0	 25.0	 0.0	 0.0	 1	 -30.0	 30.0;
	8	 12	 0.0106	 0.0574	 0.0	 158.0	 158.0	 158.0	 0.0	 0.0	 1	 -30.0	 30.0;
	8	 13	 0.1274	 0.4784	 0.0	 59.0	 59.0	 59.0	 0.0	 0.0	 1	 -30.0	 30.0;
	8	 14	 0.0473	 0.3956	 0.0	 73.0	 73.0	 73.0	 0.0	 0.0	 1	 -30.0	 30.0;
	8	 15	 0.5035	 1.7433	 0.0	 16.0	 16.0	 16.0	 0.0	 0.0	 1	 -30.0	 30.0;
	8	 132	 0.0252	 0.288	 0.0	 101.0	 101.0	 101.0	 0.0	 0.0	 1	 -30.0	 30.0;
	9	 75	 0.0013	 0.015	 0.2682	 683.0	 683.0	 683.0	 0.0	 0.0	 1	 -30.0	 30.0;
	10	 11	 0.0051	 0.037	 0.0716	 365.0	 365.0	 365.0	 0.0	 0.0	 1	 -30.0	 30.0;
	10	 13	 0.1299	 0.622	 0.0	 46.0	 46.0	 46.0	 0.0	 0.0	 1	 -30.0	 30.0;
	10	 15	 0.1275	 0.7033	 0.0	 41.0	 41.0	 41.0	 0.0	 0.0	 1	 -30.0	 30.0;
	10	 60	 0.2525	 1.2242	 0.0	 23.0	 23.0	 23.0	 0.0	 0.0	 1	 -30.0	 30.0;
	11	 15	 0.0285	 0.1793	 0.3484	 161.0	 161.0	 161.0	 0.0	 0.0	 1	 -30.0	 30.0;
	11	 46	 0.0142	 0.1225	 0.1876	 237.0	 237.0	 237.0	 0.0	 0.0	 1	 -30.0	 30.0;
	11	 58	 0.017	 0.107	 0.2074	 270.0	 270.0	 270.0	 0.0	 0.0	 1	 -30.0	 30.0;
	11	 59	 0.0071	 0.0471	 0.0852	 349.0	 349.0	 349.0	 0.0	 0.0	 1	 -30.0	 30.0;
	12	 2	 0.0008	 0.0377	 0.0	 336.0	 777.0	 777.0	 1.0252	 0.0	 1	 -30.0	 30.0;
	12	 13	 0.1038	 0.3137	 0.0	 88.0	 88.0	 88.0	 0.0	 0.0	 1	 -30.0	 30.0;
	12	 14	 0.1598	 0.6415	 0.0	 44.0	 44.0	 44.0	 0.0	 0.0	 1	 -30.0	 30.0;
	12	 132	 0.4486	 1.5773	 0.0	 17.0	 17.0	 17.0	 0.0	 0.0	 1	 -30.0	 30.0;
	13	 15	 0.044	 0.3227	 0.0	 90.0	 90.0	 90.0	 0.0	 0.0	 1	 -30.0	 30.0;
	13	 62	 0.0098	 0.1221	 0.0	 239.0	 239.0	 239.0	 0.0	 0.0	 1	 -30.0	 30.0;
	14	 72	 0.0107	 0.0828	 0.0	 263.0	 263.0	 263.0	 0.0	 0.0	 1	 -30.0	 30.0;
	14	 113	 0.0063	 0.0382	 0.0	 234.0	 234.0	 234.0	 0.0	 0.0	 1	 -30.0	 30.0;
	14	 132	 0.0057	 0.0374	 0.0	 243.0	 243.0	 243.0	 0.0	 0.0	 1	 -30.0	 30.0;
	15	 58	 0.0115	 0.0732	 0.142	 343.0	 343.0	 343.0	 0.0	 0.0	 1	 -30.0	 30.0;
	15	 60	 0.3907	 1.6753	 0.0	 17.0	 17.0	 17.0	 0.0	 0.0	 1	 -30.0	 30.0;
	15	 62	 0.0084	 0.0588	 0.0	 358.0	 358.0	 358.0	 0.0	 0.0	 1	 -30.0	 30.0;
	15	 63	 0.1704	 1.4555	 0.0	 20.0	 20.0	 20.0	 0.0	 0.0	 1	 -30.0	 30.0;
	16	 17	 0.6017	 1.4373	 0.0	 18.0	 18.0	 18.0	 0.0	 0.0	 1	 -30.0	 30.0;
	16	 18	 0.0297	 0.107	 0.0546	 183.0	 183.0	 183.0	 0.0	 0.0	 1	 -30.0	 30.0;
	16	 27	 0.1574	 0.8871	 0.0	 32.0	 32.0	 32.0	 0.0	 0.0	 1	 -30.0	 30.0;
	16	 126	 0.1053	 0.5132	 0.0	 55.0	 55.0	 55.0	 0.0	 0.0	 1	 -30.0	 30.0;
	16	 127	 0.0958	 0.5276	 0.0	 54.0	 54.0	 54.0	 0.0	 0.0	 1	 -30.0	 30.0;
	17	 18	 0.0213	 0.1013	 0.0642	 208.0	 208.0	 208.0	 0.0	 0.0	 1	 -30.0	 30.0;
	17	 19	 0.2314	 0.7678	 0.0	 36.0	 36.0	 36.0	 0.0	 0.0	 1	 -30.0	 30.0;
	17	 21	 0.0471	 0.2665	 0.0	 108.0	 108.0	 108.0	 0.0	 0.0	 1	 -30.0	 30.0;
	17	 127	 0.0287	 0.2637	 0.0	 110.0	 110.0	 110.0	 0.0	 0.0	 1	 -30.0	 30.0;
	18	 30	 0.0207	 0.1088	 0.052	 219.0	 219.0	 219.0	 0.0	 0.0	 1	 -30.0	 30.0;
	18	 32	 0.0234	 0.122	 0.0582	 218.0	 218.0	 218.0	 0.0	 0.0	 1	 -30.0	 30.0;
	18	 37	 0.0	 0.0456	 0.0	 225.0	 643.0	 643.0	 1.1193	 0.0	 1	 -30.0	 30.0;
	19	 21	 0.3867	 1.9005	 0.0	 15.0	 15.0	 15.0	 0.0	 0.0	 1	 -30.0	 30.0;
	19	 38	 0.0239	 0.125	 0.0596	 218.0	 218.0	 218.0	 0.0	 0.0	 1	 -30.0	 30.0;
	19	 43	 0.0603	 0.2572	 0.0	 111.0	 111.0	 111.0	 0.0	 0.0	 1	 -30.0	 30.0;
	19	 127	 0.1074	 0.6809	 0.0	 42.0	 42.0	 42.0	 0.0	 0.0	 1	 -30.0	 30.0;
	20	 53	 0.0	 0.114	 0.0	 75.0	 257.0	 257.0	 1.0	 0.0	 1	 -30.0	 30.0;
	20	 157	 0.0113	 0.0279	 0.0004	 44.0	 65.0	 65.0	 0.0	 0.0	 1	 -30.0	 30.0;
	21	 22	 0.0312	 0.1629	 0.0778	 176.0	 176.0	 176.0	 0.0	 0.0	 1	 -30.0	 30.0;
	21	 127	 0.0105	 0.6414	 0.0	 45.0	 45.0	 45.0	 0.0	 0.0	 1	 -30.0	 30.0;
	22	 38	 0.014	 0.054	 0.025	 189.0	 189.0	 189.0	 0.0	 0.0	 1	 -30.0	 30.0;
	22	 39	 0.0	 0.0493	 0.0	 225.0	 594.0	 594.0	 1.1081	 0.0	 1	 -30.0	 30.0;
	22	 40	 0.0188	 0.0717	 0.0328	 188.0	 188.0	 188.0	 0.0	 0.0	 1	 -30.0	 30.0;
	22	 41	 0.0172	 0.085	 0.0404	 212.0	 212.0	 212.0	 0.0	 0.0	 1	 -30.0	 30.0;
	23	 24	 0.0174	 0.0511	 0.023	 166.0	 166.0	 166.0	 0.0	 0.0	 1	 -30.0	 30.0;
	23	 60	 0.066	 0.3093	 0.0	 92.0	 92.0	 92.0	 0.0	 0.0	 1	 -30.0	 30.0;
	24	 25	 0.0	 0.034	 0.0	 225.0	 862.0	 862.0	 1.0217	 0.0	 1	 -30.0	 30.0;
	24	 28	 0.0249	 0.0725	 0.0202	 165.0	 165.0	 165.0	 0.0	 0.0	 1	 -30.0	 30.0;
	24	 45	 0.0137	 0.0725	 0.034	 219.0	 219.0	 219.0	 0.0	 0.0	 1	 -30.0	 30.0;
	25	 26	 0.0059	 0.0583	 0.9302	 500.0	 500.0	 500.0	 0.0	 0.0	 1	 -30.0	 30.0;
	25	 27	 0.0044	 0.041	 0.8384	 617.0	 617.0	 617.0	 0.0	 0.0	 1	 -30.0	 30.0;
	26	 74	 0.0063	 0.0607	 0.93	 480.0	 480.0	 480.0	 0.0	 0.0	 1	 -30.0	 30.0;
	26	 75	 0.003	 0.0322	 0.5038	 660.0	 660.0	 660.0	 0.0	 0.0	 1	 -30.0	 30.0;
	26	 76	 0.0	 0.0082	 0.0	 1250.0	 3577.0	 3577.0	 1.04	 0.0	 1	 -30.0	 30.0;
	27	 31	 0.0101	 0.1273	 0.0	 229.0	 229.0	 229.0	 0.0	 0.0	 1	 -30.0	 30.0;
	27	 62	 0.0173	 0.581	 0.0	 50.0	 50.0	 50.0	 0.0	 0.0	 1	 -30.0	 30.0;
	27	 65	 0.0105	 0.2764	 0.0	 106.0	 106.0	 106.0	 0.0	 0.0	 1	 -30.0	 30.0;
	27	 125	 0.035	 1.6845	 0.0	 17.0	 17.0	 17.0	 0.0	 0.0	 1	 -30.0	 30.0;
	27	 126	 0.0022	 0.0225	 0.0	 645.0	 645.0	 645.0	 0.0	 0.0	 1	 -30.0	 30.0;
	27	 127	 0.1506	 1.4355	 0.0	 20.0	 20.0	 20.0	 0.0	 0.0	 1	 -30.0	 30.0;
	28	 29	 0.024	 0.0965	 0.0444	 192.0	 192.0	 192.0	 0.0	 0.0	 1	 -30.0	 30.0;
	29	 30	 0.038	 0.15	 0.0696	 177.0	 189.0	 189.0	 0.0	 0.0	 1	 -30.0	 30.0;
	29	 31	 0.0206	 0.0833	 0.0384	 193.0	 193.0	 193.0	 0.0	 0.0	 1	 -30.0	 30.0;
	30	 32	 0.0249	 0.1005	 0.0458	 193.0	 193.0	 193.0	 0.0	 0.0	 1	 -30.0	 30.0;
	32	 33	 0.0114	 0.0448	 0.0208	 190.0	 190.0	 190.0	 0.0	 0.0	 1	 -30.0	 30.0;
	33	 34	 0.028	 0.114	 0.052	 180.0	 194.0	 194.0	 0.0	 0.0	 1	 -30.0	 30.0;
	33	 35	 0.0216	 0.107	 0.051	 213.0	 213.0	 213.0	 0.0	 0.0	 1	 -30.0	 30.0;
	33	 36	 0.0102	 0.0536	 0.0254	 219.0	 219.0	 219.0	 0.0	 0.0	 1	 -30.0	 30.0;
	34	 40	 0.0397	 0.1517	 0.069	 187.0	 187.0	 187.0	 0.0	 0.0	 1	 -30.0	 30.0;
	34	 77	 0.0235	 0.0896	 0.0408	 188.0	 188.0	 188.0	 0.0	 0.0	 1	 -30.0	 30.0;
	35	 40	 0.0271	 0.1341	 0.0638	 179.0	 212.0	 212.0	 0.0	 0.0	 1	 -30.0	 30.0;
	36	 67	 0.0176	 0.0924	 0.044	 219.0	 219.0	 219.0	 0.0	 0.0	 1	 -30.0	 30.0;
	37	 39	 0.0039	 0.0379	 0.67	 629.0	 629.0	 629.0	 0.0	 0.0	 1	 -30.0	 30.0;
	37	 126	 0.004	 0.0381	 0.67	 623.0	 623.0	 623.0	 0.0	 0.0	 1	 -30.0	 30.0;
	37	 127	 0.004	 0.0403	 0.6832	 640.0	 640.0	 640.0	 0.0	 0.0	 1	 -30.0	 30.0;
	39	 42	 0.002	 0.0186	 0.32	 616.0	 616.0	 616.0	 0.0	 0.0	 1	 -30.0	 30.0;
	40	 81	 0.03	 0.345	 0.0038	 81.0	 84.0	 84.0	 0.0	 0.0	 1	 -30.0	 30.0;
	40	 82	 0.004	 0.019	 0.0108	 208.0	 208.0	 208.0	 0.0	 0.0	 1	 -30.0	 30.0;
	41	 81	 0.037	 0.372	 0.0058	 78.0	 78.0	 78.0	 0.0	 0.0	 1	 -30.0	 30.0;
	41	 83	 0.0052	 0.0256	 0.0124	 212.0	 212.0	 212.0	 0.0	 0.0	 1	 -30.0	 30.0;
	41	 84	 0.0057	 0.058	 0.0292	 300.0	 300.0	 300.0	 0.0	 0.0	 1	 -30.0	 30.0;
	42	 109	 0.0019	 0.0196	 0.333	 647.0	 647.0	 647.0	 0.0	 0.0	 1	 -30.0	 30.0;
	43	 44	 0.0188	 0.0751	 0.0348	 192.0	 192.0	 192.0	 0.0	 0.0	 1	 -30.0	 30.0;
	43	 103	 0.0324	 0.1702	 0.0	 169.0	 169.0	 169.0	 0.0	 0.0	 1	 -30.0	 30.0;
	43	 124	 0.0293	 0.1766	 0.0	 163.0	 163.0	 163.0	 0.0	 0.0	 1	 -30.0	 30.0;
	43	 125	 0.1449	 0.6509	 0.0	 43.0	 43.0	 43.0	 0.0	 0.0	 1	 -30.0	 30.0;
	44	 102	 0.013	 0.05	 0.0236	 180.0	 188.0	 188.0	 0.0	 0.0	 1	 -30.0	 30.0;
	44	 103	 0.0127	 0.051	 0.0244	 180.0	 192.0	 192.0	 0.0	 0.0	 1	 -30.0	 30.0;
	45	 54	 0.0108	 0.057	 0.0272	 219.0	 219.0	 219.0	 0.0	 0.0	 1	 -30.0	 30.0;
	46	 47	 0.031	 0.1378	 0.0622	 177.0	 202.0	 202.0	 0.0	 0.0	 1	 -30.0	 30.0;
	47	 48	 0.0251	 0.1114	 0.0502	 177.0	 202.0	 202.0	 0.0	 0.0	 1	 -30.0	 30.0;
	47	 49	 0.003	 0.012	 0.0054	 192.0	 192.0	 192.0	 0.0	 0.0	 1	 -30.0	 30.0;
	48	 50	 0.0336	 0.166	 0.078	 173.0	 173.0	 173.0	 0.0	 0.0	 1	 -30.0	 30.0;
	48	 51	 0.042	 0.13	 0.057	 170.0	 170.0	 170.0	 0.0	 0.0	 1	 -30.0	 30.0;
	48	 52	 0.054	 0.168	 0.074	 166.0	 166.0	 166.0	 0.0	 0.0	 1	 -30.0	 30.0;
	49	 87	 0.014	 0.068	 0.0266	 422.0	 422.0	 422.0	 0.0	 0.0	 1	 -30.0	 30.0;
	50	 51	 0.03	 0.09	 0.041	 167.0	 167.0	 167.0	 0.0	 0.0	 1	 -30.0	 30.0;
	50	 123	 0.4071	 1.8543	 0.0	 15.0	 15.0	 15.0	 0.0	 0.0	 1	 -30.0	 30.0;
	50	 125	 0.1337	 0.6031	 0.0	 47.0	 47.0	 47.0	 0.0	 0.0	 1	 -30.0	 30.0;
	51	 141	 0.0323	 0.1	 0.0442	 170.0	 170.0	 170.0	 0.0	 0.0	 1	 -30.0	 30.0;
	52	 79	 0.0623	 0.2126	 0.094	 132.0	 132.0	 132.0	 0.0	 0.0	 1	 -30.0	 30.0;
	52	 106	 0.0231	 0.0717	 0.0314	 170.0	 170.0	 170.0	 0.0	 0.0	 1	 -30.0	 30.0;
	52	 116	 0.006	 0.0487	 0.0256	 269.0	 269.0	 269.0	 0.0	 0.0	 1	 -30.0	 30.0;
	52	 117	 0.0117	 0.0493	 0.023	 197.0	 197.0	 197.0	 0.0	 0.0	 1	 -30.0	 30.0;
	52	 118	 0.0	 0.052	 0.0	 200.0	 564.0	 564.0	 1.0429	 0.0	 1	 -30.0	 30.0;
	53	 11	 0.0005	 0.02	 0.0	 375.0	 1466.0	 1466.0	 1.0	 0.0	 1	 -30.0	 30.0;
	53	 54	 0.0275	 0.1961	 0.0956	 148.0	 148.0	 148.0	 0.0	 0.0	 1	 -30.0	 30.0;
	53	 55	 0.0005	 0.0026	 0.0022	 218.0	 218.0	 218.0	 0.0	 0.0	 1	 -30.0	 30.0;
	54	 56	 0.0174	 0.091	 0.043	 218.0	 218.0	 218.0	 0.0	 0.0	 1	 -30.0	 30.0;
	54	 57	 0.025	 0.1237	 0.0588	 212.0	 212.0	 212.0	 0.0	 0.0	 1	 -30.0	 30.0;
	55	 57	 0.0462	 0.1763	 0.0802	 160.0	 160.0	 160.0	 0.0	 0.0	 1	 -30.0	 30.0;
	55	 149	 0.0153	 0.0671	 0.0312	 201.0	 201.0	 201.0	 0.0	 0.0	 1	 -30.0	 30.0;
	55	 162	 0.004	 0.0189	 0.0098	 208.0	 208.0	 208.0	 0.0	 0.0	 1	 -30.0	 30.0;
	56	 67	 0.017	 0.0894	 0.0424	 219.0	 219.0	 219.0	 0.0	 0.0	 1	 -30.0	 30.0;
	57	 80	 0.0272	 0.1037	 0.0472	 180.0	 188.0	 188.0	 0.0	 0.0	 1	 -30.0	 30.0;
	58	 61	 0.0133	 0.1018	 0.1842	 276.0	 285.0	 285.0	 0.0	 0.0	 1	 -30.0	 30.0;
	59	 61	 0.0106	 0.0706	 0.121	 350.0	 350.0	 350.0	 0.0	 0.0	 1	 -30.0	 30.0;
	60	 61	 0.0027	 0.0653	 -0.0022	 100.0	 448.0	 448.0	 1.0252	 0.0	 1	 -30.0	 30.0;
	60	 61	 0.002	 0.0393	 0.0	 200.0	 745.0	 745.0	 1.0252	 0.0	 1	 -30.0	 30.0;
	60	 62	 0.3674	 0.964	 0.0	 28.0	 28.0	 28.0	 0.0	 0.0	 1	 -30.0	 30.0;
	60	 65	 0.1041	 0.4144	 0.0	 68.0	 68.0	 68.0	 0.0	 0.0	 1	 -30.0	 30.0;
	60	 126	 0.5367	 1.8295	 0.0	 15.0	 15.0	 15.0	 0.0	 0.0	 1	 -30.0	 30.0;
	61	 62	 0.0296	 0.2275	 0.3996	 127.0	 127.0	 127.0	 0.0	 0.0	 1	 -30.0	 30.0;
	61	 63	 0.0043	 0.0422	 0.0764	 345.0	 421.0	 421.0	 0.0	 0.0	 1	 -30.0	 30.0;
	62	 63	 0.0158	 0.1702	 0.0	 171.0	 171.0	 171.0	 0.0	 0.0	 1	 -30.0	 30.0;
	62	 65	 0.004	 0.074	 0.0	 395.0	 395.0	 395.0	 0.0	 0.0	 1	 -30.0	 30.0;
	62	 126	 0.0044	 0.2969	 0.0	 98.0	 98.0	 98.0	 0.0	 0.0	 1	 -30.0	 30.0;
	63	 65	 0.2409	 1.96	 0.0	 14.0	 14.0	 14.0	 0.0	 0.0	 1	 -30.0	 30.0;
	64	 65	 0.005	 0.0571	 0.9098	 511.0	 511.0	 511.0	 0.0	 0.0	 1	 -30.0	 30.0;
	64	 66	 0.0033	 0.0381	 0.6066	 683.0	 683.0	 683.0	 0.0	 0.0	 1	 -30.0	 30.0;
	65	 126	 0.0031	 0.1536	 0.0	 190.0	 190.0	 190.0	 0.0	 0.0	 1	 -30.0	 30.0;
	66	 11	 0.0	 0.0118	 0.0	 500.0	 2485.0	 2485.0	 1.0	 0.0	 1	 -30.0	 30.0;
	67	 68	 0.0193	 0.1013	 0.0482	 219.0	 219.0	 219.0	 0.0	 0.0	 1	 -30.0	 30.0;
	68	 69	 0.0068	 0.0353	 0.0168	 217.0	 217.0	 217.0	 0.0	 0.0	 1	 -30.0	 30.0;
	69	 77	 0.0098	 0.0374	 0.017	 188.0	 188.0	 188.0	 0.0	 0.0	 1	 -30.0	 30.0;
	69	 78	 0.0114	 0.0434	 0.0196	 180.0	 187.0	 187.0	 0.0	 0.0	 1	 -30.0	 30.0;
	69	 79	 0.0052	 0.0433	 0.022	 272.0	 272.0	 272.0	 0.0	 0.0	 1	 -30.0	 30.0;
	70	 73	 0.0	 0.0197	 0.0	 495.0	 1488.0	 1488.0	 1.0398	 0.0	 1	 -30.0	 30.0;
	70	 149	 0.0002	 0.0018	 0.001	 283.0	 283.0	 283.0	 0.0	 0.0	 1	 -30.0	 30.0;
	70	 149	 0.0002	 0.0018	 0.001	 283.0	 283.0	 283.0	 0.0	 0.0	 1	 -30.0	 30.0;
	71	 85	 0.0304	 0.1506	 0.0716	 190.0	 190.0	 190.0	 0.0	 0.0	 1	 -30.0	 30.0;
	71	 150	 0.0196	 0.097	 0.0462	 212.0	 212.0	 212.0	 0.0	 0.0	 1	 -30.0	 30.0;
	72	 113	 0.0022	 0.013	 0.0	 231.0	 231.0	 231.0	 0.0	 0.0	 1	 -30.0	 30.0;
	72	 132	 0.0028	 0.0168	 0.0	 233.0	 233.0	 233.0	 0.0	 0.0	 1	 -30.0	 30.0;
	72	 152	 0.0385	 0.18	 0.0	 159.0	 159.0	 159.0	 0.0	 0.0	 1	 -30.0	 30.0;
	74	 119	 0.0031	 0.031	 0.4822	 638.0	 638.0	 638.0	 0.0	 0.0	 1	 -30.0	 30.0;
	75	 128	 0.0008	 0.0087	 0.166	 664.0	 664.0	 664.0	 0.0	 0.0	 1	 -30.0	 30.0;
	75	 130	 0.0004	 0.0242	 0.0	 578.0	 1211.0	 1211.0	 1.0249	 0.0	 1	 -30.0	 30.0;
	78	 79	 0.0051	 0.0336	 0.0182	 244.0	 244.0	 244.0	 0.0	 0.0	 1	 -30.0	 30.0;
	78	 80	 0.0244	 0.093	 0.0422	 180.0	 188.0	 188.0	 0.0	 0.0	 1	 -30.0	 30.0;
	79	 74	 0.0	 0.018	 0.0	 500.0	 1629.0	 1629.0	 1.0248	 0.0	 1	 -30.0	 30.0;
	82	 83	 0.0053	 0.0249	 0.013	 207.0	 207.0	 207.0	 0.0	 0.0	 1	 -30.0	 30.0;
	84	 93	 0.0125	 0.0826	 0.0414	 244.0	 244.0	 244.0	 0.0	 0.0	 1	 -30.0	 30.0;
	85	 86	 0.0211	 0.1046	 0.0498	 213.0	 213.0	 213.0	 0.0	 0.0	 1	 -30.0	 30.0;
	86	 87	 0.028	 0.112	 0.0538	 254.0	 254.0	 254.0	 0.0	 0.0	 1	 -30.0	 30.0;
	86	 88	 0.044	 0.228	 0.109	 126.0	 126.0	 126.0	 0.0	 0.0	 1	 -30.0	 30.0;
	88	 96	 0.074	 0.25	 0.0142	 48.0	 112.0	 112.0	 0.0	 0.0	 1	 -30.0	 30.0;
	88	 106	 0.0079	 0.0468	 0.0232	 173.0	 618.0	 618.0	 0.0	 0.0	 1	 -30.0	 30.0;
	89	 86	 0.0	 0.057	 0.0	 90.0	 514.0	 514.0	 1.0252	 0.0	 1	 -30.0	 30.0;
	89	 90	 0.069	 0.134	 0.014	 69.0	 97.0	 97.0	 0.0	 0.0	 1	 -30.0	 30.0;
	90	 96	 0.1837	 0.359	 0.037	 72.0	 72.0	 72.0	 0.0	 0.0	 1	 -30.0	 30.0;
	91	 92	 0.0156	 0.0819	 0.0376	 219.0	 219.0	 219.0	 0.0	 0.0	 1	 -30.0	 30.0;
	91	 93	 0.0143	 0.0895	 0.045	 238.0	 238.0	 238.0	 0.0	 0.0	 1	 -30.0	 30.0;
	91	 94	 0.0145	 0.0957	 0.048	 244.0	 244.0	 244.0	 0.0	 0.0	 1	 -30.0	 30.0;
	92	 102	 0.015	 0.061	 0.0292	 193.0	 193.0	 193.0	 0.0	 0.0	 1	 -30.0	 30.0;
	93	 42	 0.0	 0.026	 0.0	 400.0	 1128.0	 1128.0	 1.0248	 0.0	 1	 -30.0	 30.0;
	93	 108	 0.0	 0.0154	 0.0	 600.0	 1904.0	 1904.0	 1.0503	 0.0	 1	 -30.0	 30.0;
	94	 103	 0.0227	 0.1333	 0.066	 216.0	 216.0	 216.0	 0.0	 0.0	 1	 -30.0	 30.0;
	94	 107	 0.0613	 0.1891	 0.0836	 147.0	 147.0	 147.0	 0.0	 0.0	 1	 -30.0	 30.0;
	94	 109	 0.0	 0.035	 0.0	 300.0	 838.0	 838.0	 1.0248	 0.0	 1	 -30.0	 30.0;
	95	 91	 0.0054	 0.0458	 -0.0036	 250.0	 636.0	 636.0	 1.02	 0.0	 1	 -30.0	 30.0;
	95	 96	 0.087	 0.212	 0.086	 108.0	 108.0	 108.0	 0.0	 0.0	 1	 -30.0	 30.0;
	95	 97	 0.1289	 0.2809	 0.0334	 58.0	 94.0	 94.0	 0.0	 0.0	 1	 -30.0	 30.0;
	95	 98	 0.0071	 0.043	 0.0224	 167.0	 167.0	 167.0	 0.0	 0.0	 1	 -30.0	 30.0;
	95	 99	 0.0	 0.0685	 0.0	 150.0	 428.0	 428.0	 1.0296	 0.0	 1	 -30.0	 30.0;
	96	 100	 0.069	 0.161	 0.0186	 69.0	 106.0	 106.0	 0.0	 0.0	 1	 -30.0	 30.0;
	96	 101	 0.0	 0.1031	 0.0	 96.0	 284.0	 284.0	 1.0296	 0.0	 1	 -30.0	 30.0;
	97	 44	 0.0051	 0.1007	 -0.0025	 84.0	 290.0	 290.0	 1.0252	 0.0	 1	 -30.0	 30.0;
	98	 93	 0.0006	 0.0214	 -0.0341	 504.0	 1370.0	 1370.0	 1.0252	 0.0	 1	 -30.0	 30.0;
	98	 105	 0.1485	 0.293	 0.031	 69.0	 89.0	 89.0	 0.0	 0.0	 1	 -30.0	 30.0;
	100	 104	 0.062	 0.145	 0.0166	 69.0	 106.0	 106.0	 0.0	 0.0	 1	 -30.0	 30.0;
	103	 123	 0.182	 0.751	 0.0	 37.0	 37.0	 37.0	 0.0	 0.0	 1	 -30.0	 30.0;
	103	 124	 0.0002	 0.0167	 0.0	 1756.0	 1756.0	 1756.0	 0.0	 0.0	 1	 -30.0	 30.0;
	103	 125	 0.0279	 0.1972	 0.0	 147.0	 147.0	 147.0	 0.0	 0.0	 1	 -30.0	 30.0;
	104	 34	 0.008	 0.0637	 -0.0033	 106.0	 456.0	 456.0	 1.0	 0.0	 1	 -30.0	 30.0;
	105	 38	 0.0	 0.116	 0.0	 45.0	 252.0	 252.0	 1.0252	 0.0	 1	 -30.0	 30.0;
	106	 107	 0.0196	 0.0611	 0.0268	 170.0	 170.0	 170.0	 0.0	 0.0	 1	 -30.0	 30.0;
	107	 122	 0.013	 0.0621	 0.0296	 209.0	 209.0	 209.0	 0.0	 0.0	 1	 -30.0	 30.0;
	109	 119	 0.006	 0.0577	 0.929	 505.0	 505.0	 505.0	 0.0	 0.0	 1	 -30.0	 30.0;
	109	 124	 0.002	 0.0222	 0.3782	 670.0	 670.0	 670.0	 0.0	 0.0	 1	 -30.0	 30.0;
	109	 125	 0.007	 0.062	 1.0	 470.0	 470.0	 470.0	 0.0	 0.0	 1	 -30.0	 30.0;
	110	 111	 0.023	 0.099	 0.046	 180.0	 199.0	 199.0	 0.0	 0.0	 1	 -30.0	 30.0;
	110	 112	 0.0	 0.0185	 0.0	 500.0	 1585.0	 1585.0	 1.0	 0.0	 1	 -30.0	 30.0;
	110	 114	 0.0	 0.0768	 0.0	 150.0	 381.0	 381.0	 1.0398	 0.0	 1	 -30.0	 30.0;
	110	 134	 0.0032	 0.0256	 0.0134	 267.0	 267.0	 267.0	 0.0	 0.0	 1	 -30.0	 30.0;
	110	 141	 0.021	 0.0649	 0.0288	 170.0	 170.0	 170.0	 0.0	 0.0	 1	 -30.0	 30.0;
	111	 115	 0.0527	 0.2215	 0.103	 128.0	 128.0	 128.0	 0.0	 0.0	 1	 -30.0	 30.0;
	112	 120	 0.0005	 0.0044	 0.072	 600.0	 600.0	 600.0	 0.0	 0.0	 1	 -30.0	 30.0;
	112	 121	 0.0	 0.019	 0.0	 720.0	 1543.0	 1543.0	 1.0499	 0.0	 1	 -30.0	 30.0;
	113	 132	 0.0459	 0.2911	 0.0	 99.0	 99.0	 99.0	 0.0	 0.0	 1	 -30.0	 30.0;
	113	 134	 0.0008	 0.0072	 0.0038	 283.0	 283.0	 283.0	 0.0	 0.0	 1	 -30.0	 30.0;
	115	 117	 0.0019	 0.0154	 0.033	 269.0	 269.0	 269.0	 0.0	 0.0	 1	 -30.0	 30.0;
	116	 117	 0.0048	 0.0391	 0.0214	 270.0	 270.0	 270.0	 0.0	 0.0	 1	 -30.0	 30.0;
	116	 119	 0.0	 0.009	 0.0	 1000.0	 3259.0	 3259.0	 1.0248	 0.0	 1	 -30.0	 30.0;
	116	 147	 0.0035	 0.0286	 0.0156	 270.0	 270.0	 270.0	 0.0	 0.0	 1	 -30.0	 30.0;
	117	 147	 0.0022	 0.0175	 0.01	 267.0	 267.0	 267.0	 0.0	 0.0	 1	 -30.0	 30.0;
	120	 14	 0.0003	 0.0188	 0.0	 500.0	 1560.0	 1560.0	 0.9751	 0.0	 1	 -30.0	 30.0;
	120	 128	 0.0004	 0.0051	 0.1	 716.0	 716.0	 716.0	 0.0	 0.0	 1	 -30.0	 30.0;
	120	 129	 0.0003	 0.0038	 0.0652	 714.0	 714.0	 714.0	 0.0	 0.0	 1	 -30.0	 30.0;
	122	 123	 0.0175	 0.0835	 0.0398	 209.0	 209.0	 209.0	 0.0	 0.0	 1	 -30.0	 30.0;
	123	 125	 0.0423	 0.2441	 0.0	 118.0	 118.0	 118.0	 0.0	 0.0	 1	 -30.0	 30.0;
	124	 125	 0.0113	 0.1585	 0.0	 184.0	 184.0	 184.0	 0.0	 0.0	 1	 -30.0	 30.0;
	124	 126	 0.0577	 0.8256	 0.0	 35.0	 35.0	 35.0	 0.0	 0.0	 1	 -30.0	 30.0;
	125	 126	 0.0201	 0.5915	 0.0	 49.0	 49.0	 49.0	 0.0	 0.0	 1	 -30.0	 30.0;
	126	 127	 0.0877	 0.7049	 0.0	 41.0	 41.0	 41.0	 0.0	 0.0	 1	 -30.0	 30.0;
	128	 72	 0.0004	 0.018	 0.0	 500.0	 1629.0	 1629.0	 1.0	 0.0	 1	 -30.0	 30.0;
	129	 132	 0.0004	 0.0198	 0.0	 500.0	 1481.0	 1481.0	 1.0	 0.0	 1	 -30.0	 30.0;
	133	 134	 0.0	 0.041	 0.0	 160.0	 715.0	 715.0	 1.0249	 0.0	 1	 -30.0	 30.0;
	133	 135	 0.0109	 0.0259	 0.0004	 44.0	 64.0	 64.0	 0.0	 0.0	 1	 -30.0	 30.0;
	133	 136	 0.039	 0.099	 0.0016	 39.0	 66.0	 66.0	 0.0	 0.0	 1	 -30.0	 30.0;
	133	 137	 0.0134	 0.0504	 0.001	 60.0	 80.0	 80.0	 0.0	 0.0	 1	 -30.0	 30.0;
	135	 138	 0.0466	 0.1182	 0.002	 39.0	 66.0	 66.0	 0.0	 0.0	 1	 -30.0	 30.0;
	136	 139	 0.026	 0.065	 0.001	 39.0	 65.0	 65.0	 0.0	 0.0	 1	 -30.0	 30.0;
	137	 140	 0.0041	 0.0156	 0.0004	 60.0	 80.0	 80.0	 0.0	 0.0	 1	 -30.0	 30.0;
	138	 110	 0.0	 0.041	 0.0	 160.0	 715.0	 715.0	 1.0	 0.0	 1	 -30.0	 30.0;
	138	 139	 0.026	 0.065	 0.001	 39.0	 65.0	 65.0	 0.0	 0.0	 1	 -30.0	 30.0;
	138	 140	 0.0251	 0.0941	 0.0018	 60.0	 79.0	 79.0	 0.0	 0.0	 1	 -30.0	 30.0;
	138	 145	 0.0923	 0.2338	 0.0038	 39.0	 66.0	 66.0	 0.0	 0.0	 1	 -30.0	 30.0;
	142	 51	 0.0	 0.1728	 0.0	 83.0	 169.0	 169.0	 1.07	 0.0	 1	 -30.0	 30.0;
	142	 143	 0.1582	 0.3919	 0.0068	 44.0	 65.0	 65.0	 0.0	 0.0	 1	 -30.0	 30.0;
	142	 146	 0.1618	 0.3861	 0.007	 44.0	 64.0	 64.0	 0.0	 0.0	 1	 -30.0	 30.0;
	143	 144	 0.0927	 0.2322	 0.002	 44.0	 65.0	 65.0	 0.0	 0.0	 1	 -30.0	 30.0;
	144	 141	 0.0	 0.082	 0.0	 80.0	 357.0	 357.0	 1.0249	 0.0	 1	 -30.0	 30.0;
	144	 145	 0.089	 0.221	 0.0032	 39.0	 65.0	 65.0	 0.0	 0.0	 1	 -30.0	 30.0;
	144	 146	 0.068	 0.2906	 0.0058	 60.0	 85.0	 85.0	 0.0	 0.0	 1	 -30.0	 30.0;
	148	 116	 0.0	 0.041	 0.0	 160.0	 715.0	 715.0	 1.0	 0.0	 1	 -30.0	 30.0;
	149	 26	 0.0	 0.0386	 0.0	 300.0	 759.0	 759.0	 1.0	 0.0	 1	 -30.0	 30.0;
	149	 26	 0.0	 0.0386	 0.0	 300.0	 759.0	 759.0	 1.0	 0.0	 1	 -30.0	 30.0;
	149	 150	 0.001	 0.0085	 0.002	 275.0	 275.0	 275.0	 0.0	 0.0	 1	 -30.0	 30.0;
	149	 151	 0.0039	 0.0262	 0.0138	 246.0	 246.0	 246.0	 0.0	 0.0	 1	 -30.0	 30.0;
	149	 152	 0.0253	 0.1168	 0.0544	 206.0	 206.0	 206.0	 0.0	 0.0	 1	 -30.0	 30.0;
	151	 161	 0.0021	 0.0138	 0.0074	 243.0	 243.0	 243.0	 0.0	 0.0	 1	 -30.0	 30.0;
	153	 70	 0.0	 0.0916	 0.0	 93.0	 320.0	 320.0	 1.0	 0.0	 1	 -30.0	 30.0;
	153	 70	 0.0	 0.0916	 0.0	 93.0	 320.0	 320.0	 1.0	 0.0	 1	 -30.0	 30.0;
	153	 154	 0.071	 0.2841	 0.0054	 50.0	 82.0	 82.0	 0.0	 0.0	 1	 -30.0	 30.0;
	153	 155	 0.043	 0.1856	 0.0038	 66.0	 85.0	 85.0	 0.0	 0.0	 1	 -30.0	 30.0;
	154	 156	 0.0155	 0.0379	 0.0008	 50.0	 65.0	 65.0	 0.0	 0.0	 1	 -30.0	 30.0;
	154	 160	 0.0102	 0.0429	 0.001	 50.0	 84.0	 84.0	 0.0	 0.0	 1	 -30.0	 30.0;
	155	 156	 0.0176	 0.0822	 0.0014	 66.0	 88.0	 88.0	 0.0	 0.0	 1	 -30.0	 30.0;
	156	 157	 0.053	 0.1273	 0.0022	 33.0	 64.0	 64.0	 0.0	 0.0	 1	 -30.0	 30.0;
	157	 55	 0.0	 0.0827	 0.0	 150.0	 354.0	 354.0	 1.0	 0.0	 1	 -30.0	 30.0;
	157	 158	 0.0489	 0.1404	 0.0028	 50.0	 70.0	 70.0	 0.0	 0.0	 1	 -30.0	 30.0;
	158	 159	 0.0339	 0.0664	 0.0012	 50.0	 58.0	 58.0	 0.0	 0.0	 1	 -30.0	 30.0;
	159	 160	 0.019	 0.0811	 0.012	 50.0	 85.0	 85.0	 0.0	 0.0	 1	 -30.0	 30.0;
	161	 162	 0.0022	 0.0103	 0.0054	 207.0	 207.0	 207.0	 0.0	 0.0	 1	 -30.0	 30.0;
];

% INFO    : === Translation Options ===
% INFO    : Load Model:                  from file ./nesta_case162_ieee_dtc.dat.sol
% INFO    : Gen Active Capacity Model:   stat
% INFO    : Gen Reactive Capacity Model: al50ag
% INFO    : Gen Active Cost Model:       stat
% INFO    : 
% INFO    : === Load Replacement Notes ===
% INFO    : Bus 1	: Pd=0.0, Qd=0.0 -> Pd=0.00, Qd=0.00
% INFO    : Bus 2	: Pd=0.0, Qd=0.0 -> Pd=0.00, Qd=0.00
% INFO    : Bus 3	: Pd=370.0, Qd=96.9 -> Pd=404.97, Qd=96.90
% INFO    : Bus 4	: Pd=0.0, Qd=0.0 -> Pd=0.00, Qd=0.00
% INFO    : Bus 5	: Pd=0.0, Qd=0.0 -> Pd=0.00, Qd=0.00
% INFO    : Bus 6	: Pd=0.0, Qd=0.0 -> Pd=0.00, Qd=0.00
% INFO    : Bus 7	: Pd=0.0, Qd=0.0 -> Pd=0.00, Qd=0.00
% INFO    : Bus 8	: Pd=398.0, Qd=0.0 -> Pd=398.00, Qd=0.00
% INFO    : Bus 9	: Pd=0.0, Qd=0.0 -> Pd=0.00, Qd=0.00
% INFO    : Bus 10	: Pd=226.0, Qd=0.0 -> Pd=226.00, Qd=0.00
% INFO    : Bus 11	: Pd=0.0, Qd=0.0 -> Pd=0.00, Qd=0.00
% INFO    : Bus 12	: Pd=193.0, Qd=0.0 -> Pd=193.00, Qd=0.00
% INFO    : Bus 13	: Pd=204.0, Qd=0.0 -> Pd=204.00, Qd=0.00
% INFO    : Bus 14	: Pd=381.0, Qd=0.0 -> Pd=381.00, Qd=0.00
% INFO    : Bus 15	: Pd=-80.0, Qd=0.0 -> Pd=-80.00, Qd=0.00
% INFO    : Bus 16	: Pd=-54.2, Qd=0.0 -> Pd=-54.20, Qd=0.00
% INFO    : Bus 17	: Pd=-116.5, Qd=0.0 -> Pd=-116.50, Qd=0.00
% INFO    : Bus 18	: Pd=34.4, Qd=11.67 -> Pd=37.65, Qd=11.67
% INFO    : Bus 19	: Pd=64.4, Qd=0.0 -> Pd=64.40, Qd=0.00
% INFO    : Bus 20	: Pd=37.9, Qd=12.5 -> Pd=41.48, Qd=12.50
% INFO    : Bus 21	: Pd=-69.8, Qd=0.0 -> Pd=-69.80, Qd=0.00
% INFO    : Bus 22	: Pd=17.39, Qd=5.27 -> Pd=19.03, Qd=5.27
% INFO    : Bus 23	: Pd=63.5, Qd=0.0 -> Pd=63.50, Qd=0.00
% INFO    : Bus 24	: Pd=0.0, Qd=0.0 -> Pd=0.00, Qd=0.00
% INFO    : Bus 25	: Pd=0.0, Qd=0.0 -> Pd=0.00, Qd=0.00
% INFO    : Bus 26	: Pd=0.0, Qd=0.0 -> Pd=0.00, Qd=0.00
% INFO    : Bus 27	: Pd=324.0, Qd=57.9 -> Pd=354.63, Qd=57.90
% INFO    : Bus 28	: Pd=38.47, Qd=13.17 -> Pd=42.11, Qd=13.17
% INFO    : Bus 29	: Pd=28.31, Qd=9.03 -> Pd=30.99, Qd=9.03
% INFO    : Bus 30	: Pd=101.2, Qd=32.52 -> Pd=110.77, Qd=32.52
% INFO    : Bus 31	: Pd=72.5, Qd=0.0 -> Pd=72.50, Qd=0.00
% INFO    : Bus 32	: Pd=52.7, Qd=15.06 -> Pd=57.68, Qd=15.06
% INFO    : Bus 33	: Pd=45.17, Qd=15.06 -> Pd=49.44, Qd=15.06
% INFO    : Bus 34	: Pd=14.18, Qd=5.25 -> Pd=15.52, Qd=5.25
% INFO    : Bus 35	: Pd=54.48, Qd=14.63 -> Pd=59.63, Qd=14.63
% INFO    : Bus 36	: Pd=31.96, Qd=8.68 -> Pd=34.98, Qd=8.68
% INFO    : Bus 37	: Pd=0.0, Qd=0.0 -> Pd=0.00, Qd=0.00
% INFO    : Bus 38	: Pd=14.76, Qd=4.08 -> Pd=16.16, Qd=4.08
% INFO    : Bus 39	: Pd=0.0, Qd=0.0 -> Pd=0.00, Qd=0.00
% INFO    : Bus 40	: Pd=52.88, Qd=17.6 -> Pd=57.88, Qd=17.60
% INFO    : Bus 41	: Pd=39.2, Qd=12.8 -> Pd=42.91, Qd=12.80
% INFO    : Bus 42	: Pd=0.0, Qd=0.0 -> Pd=0.00, Qd=0.00
% INFO    : Bus 43	: Pd=41.5, Qd=0.0 -> Pd=41.50, Qd=0.00
% INFO    : Bus 44	: Pd=16.32, Qd=3.71 -> Pd=17.86, Qd=3.71
% INFO    : Bus 45	: Pd=20.02, Qd=5.41 -> Pd=21.91, Qd=5.41
% INFO    : Bus 46	: Pd=65.31, Qd=22.3 -> Pd=71.48, Qd=22.30
% INFO    : Bus 47	: Pd=4.82, Qd=1.56 -> Pd=5.28, Qd=1.56
% INFO    : Bus 48	: Pd=33.76, Qd=22.86 -> Pd=36.95, Qd=22.86
% INFO    : Bus 49	: Pd=6.82, Qd=1.78 -> Pd=7.46, Qd=1.78
% INFO    : Bus 50	: Pd=99.7, Qd=0.0 -> Pd=99.70, Qd=0.00
% INFO    : Bus 51	: Pd=0.0, Qd=0.0 -> Pd=0.00, Qd=0.00
% INFO    : Bus 52	: Pd=218.2, Qd=42.8 -> Pd=238.83, Qd=42.80
% INFO    : Bus 53	: Pd=0.0, Qd=0.0 -> Pd=0.00, Qd=0.00
% INFO    : Bus 54	: Pd=70.34, Qd=29.57 -> Pd=76.99, Qd=29.57
% INFO    : Bus 55	: Pd=0.0, Qd=0.0 -> Pd=0.00, Qd=0.00
% INFO    : Bus 56	: Pd=25.29, Qd=7.26 -> Pd=27.68, Qd=7.26
% INFO    : Bus 57	: Pd=48.48, Qd=15.61 -> Pd=53.06, Qd=15.61
% INFO    : Bus 58	: Pd=0.0, Qd=0.0 -> Pd=0.00, Qd=0.00
% INFO    : Bus 59	: Pd=84.43, Qd=27.05 -> Pd=92.41, Qd=27.05
% INFO    : Bus 60	: Pd=244.0, Qd=0.0 -> Pd=244.00, Qd=0.00
% INFO    : Bus 61	: Pd=0.0, Qd=0.0 -> Pd=0.00, Qd=0.00
% INFO    : Bus 62	: Pd=-865.6, Qd=0.0 -> Pd=-865.60, Qd=0.00
% INFO    : Bus 63	: Pd=59.1, Qd=0.0 -> Pd=59.10, Qd=0.00
% INFO    : Bus 64	: Pd=0.0, Qd=0.0 -> Pd=0.00, Qd=0.00
% INFO    : Bus 65	: Pd=-26.3, Qd=0.0 -> Pd=-26.30, Qd=0.00
% INFO    : Bus 66	: Pd=0.0, Qd=0.0 -> Pd=0.00, Qd=0.00
% INFO    : Bus 67	: Pd=22.54, Qd=7.03 -> Pd=24.67, Qd=7.03
% INFO    : Bus 68	: Pd=40.42, Qd=12.68 -> Pd=44.24, Qd=12.68
% INFO    : Bus 69	: Pd=0.0, Qd=0.0 -> Pd=0.00, Qd=0.00
% INFO    : Bus 70	: Pd=0.0, Qd=0.0 -> Pd=0.00, Qd=0.00
% INFO    : Bus 71	: Pd=29.87, Qd=11.93 -> Pd=32.69, Qd=11.93
% INFO    : Bus 72	: Pd=427.0, Qd=0.0 -> Pd=427.00, Qd=0.00
% INFO    : Bus 73	: Pd=0.0, Qd=0.0 -> Pd=0.00, Qd=0.00
% INFO    : Bus 74	: Pd=0.0, Qd=0.0 -> Pd=0.00, Qd=0.00
% INFO    : Bus 75	: Pd=0.0, Qd=0.0 -> Pd=0.00, Qd=0.00
% INFO    : Bus 76	: Pd=0.0, Qd=0.0 -> Pd=0.00, Qd=0.00
% INFO    : Bus 77	: Pd=26.41, Qd=8.78 -> Pd=28.91, Qd=8.78
% INFO    : Bus 78	: Pd=79.12, Qd=0.0 -> Pd=79.12, Qd=0.00
% INFO    : Bus 79	: Pd=0.0, Qd=0.0 -> Pd=0.00, Qd=0.00
% INFO    : Bus 80	: Pd=15.76, Qd=5.25 -> Pd=17.25, Qd=5.25
% INFO    : Bus 81	: Pd=50.88, Qd=16.8 -> Pd=55.69, Qd=16.80
% INFO    : Bus 82	: Pd=62.28, Qd=20.26 -> Pd=68.17, Qd=20.26
% INFO    : Bus 83	: Pd=0.0, Qd=0.0 -> Pd=0.00, Qd=0.00
% INFO    : Bus 84	: Pd=37.9, Qd=9.49 -> Pd=41.48, Qd=9.49
% INFO    : Bus 85	: Pd=40.52, Qd=11.26 -> Pd=44.35, Qd=11.26
% INFO    : Bus 86	: Pd=50.73, Qd=13.35 -> Pd=55.53, Qd=13.35
% INFO    : Bus 87	: Pd=16.91, Qd=4.23 -> Pd=18.51, Qd=4.23
% INFO    : Bus 88	: Pd=60.6, Qd=4.44 -> Pd=66.33, Qd=4.44
% INFO    : Bus 89	: Pd=0.0, Qd=0.0 -> Pd=0.00, Qd=0.00
% INFO    : Bus 90	: Pd=50.21, Qd=16.76 -> Pd=54.96, Qd=16.76
% INFO    : Bus 91	: Pd=51.24, Qd=12.83 -> Pd=56.08, Qd=12.83
% INFO    : Bus 92	: Pd=36.12, Qd=9.05 -> Pd=39.53, Qd=9.05
% INFO    : Bus 93	: Pd=103.8, Qd=34.56 -> Pd=113.61, Qd=34.56
% INFO    : Bus 94	: Pd=164.0, Qd=6.49 -> Pd=179.50, Qd=6.49
% INFO    : Bus 95	: Pd=117.2, Qd=39.01 -> Pd=128.28, Qd=39.01
% INFO    : Bus 96	: Pd=119.2, Qd=0.0 -> Pd=119.20, Qd=0.00
% INFO    : Bus 97	: Pd=22.84, Qd=5.71 -> Pd=25.00, Qd=5.71
% INFO    : Bus 98	: Pd=151.1, Qd=50.35 -> Pd=165.38, Qd=50.35
% INFO    : Bus 99	: Pd=0.0, Qd=0.0 -> Pd=0.00, Qd=0.00
% INFO    : Bus 100	: Pd=23.21, Qd=6.9 -> Pd=25.40, Qd=6.90
% INFO    : Bus 101	: Pd=0.0, Qd=0.0 -> Pd=0.00, Qd=0.00
% INFO    : Bus 102	: Pd=16.54, Qd=4.08 -> Pd=18.10, Qd=4.08
% INFO    : Bus 103	: Pd=322.0, Qd=0.0 -> Pd=322.00, Qd=0.00
% INFO    : Bus 104	: Pd=31.52, Qd=10.46 -> Pd=34.50, Qd=10.46
% INFO    : Bus 105	: Pd=24.84, Qd=6.23 -> Pd=27.19, Qd=6.23
% INFO    : Bus 106	: Pd=0.0, Qd=0.0 -> Pd=0.00, Qd=0.00
% INFO    : Bus 107	: Pd=35.41, Qd=5.41 -> Pd=38.76, Qd=5.41
% INFO    : Bus 108	: Pd=0.0, Qd=0.0 -> Pd=0.00, Qd=0.00
% INFO    : Bus 109	: Pd=0.0, Qd=0.0 -> Pd=0.00, Qd=0.00
% INFO    : Bus 110	: Pd=0.0, Qd=0.0 -> Pd=0.00, Qd=0.00
% INFO    : Bus 111	: Pd=65.41, Qd=16.72 -> Pd=71.59, Qd=16.72
% INFO    : Bus 112	: Pd=0.0, Qd=0.0 -> Pd=0.00, Qd=0.00
% INFO    : Bus 113	: Pd=32.7, Qd=0.0 -> Pd=32.70, Qd=0.00
% INFO    : Bus 114	: Pd=0.0, Qd=0.0 -> Pd=0.00, Qd=0.00
% INFO    : Bus 115	: Pd=17.32, Qd=3.34 -> Pd=18.96, Qd=3.34
% INFO    : Bus 116	: Pd=56.08, Qd=11.2 -> Pd=61.38, Qd=11.20
% INFO    : Bus 117	: Pd=101.9, Qd=20.06 -> Pd=111.53, Qd=20.06
% INFO    : Bus 118	: Pd=0.0, Qd=0.0 -> Pd=0.00, Qd=0.00
% INFO    : Bus 119	: Pd=0.0, Qd=0.0 -> Pd=0.00, Qd=0.00
% INFO    : Bus 120	: Pd=0.0, Qd=0.0 -> Pd=0.00, Qd=0.00
% INFO    : Bus 121	: Pd=0.0, Qd=0.0 -> Pd=0.00, Qd=0.00
% INFO    : Bus 122	: Pd=47.28, Qd=9.36 -> Pd=51.75, Qd=9.36
% INFO    : Bus 123	: Pd=165.0, Qd=0.0 -> Pd=165.00, Qd=0.00
% INFO    : Bus 124	: Pd=-571.0, Qd=90.9 -> Pd=-571.00, Qd=90.90
% INFO    : Bus 125	: Pd=2000.0, Qd=0.0 -> Pd=2000.00, Qd=0.00
% INFO    : Bus 126	: Pd=-467.0, Qd=0.0 -> Pd=-467.00, Qd=0.00
% INFO    : Bus 127	: Pd=-52.6, Qd=0.0 -> Pd=-52.60, Qd=0.00
% INFO    : Bus 128	: Pd=0.0, Qd=0.0 -> Pd=0.00, Qd=0.00
% INFO    : Bus 129	: Pd=0.0, Qd=0.0 -> Pd=0.00, Qd=0.00
% INFO    : Bus 130	: Pd=0.0, Qd=0.0 -> Pd=0.00, Qd=0.00
% INFO    : Bus 131	: Pd=0.0, Qd=0.0 -> Pd=0.00, Qd=0.00
% INFO    : Bus 132	: Pd=159.0, Qd=0.0 -> Pd=159.00, Qd=0.00
% INFO    : Bus 133	: Pd=30.1, Qd=6.02 -> Pd=32.95, Qd=6.02
% INFO    : Bus 134	: Pd=17.46, Qd=3.34 -> Pd=19.11, Qd=3.34
% INFO    : Bus 135	: Pd=20.06, Qd=4.01 -> Pd=21.96, Qd=4.01
% INFO    : Bus 136	: Pd=20.06, Qd=4.01 -> Pd=21.96, Qd=4.01
% INFO    : Bus 137	: Pd=20.06, Qd=4.01 -> Pd=21.96, Qd=4.01
% INFO    : Bus 138	: Pd=0.0, Qd=0.0 -> Pd=0.00, Qd=0.00
% INFO    : Bus 139	: Pd=10.1, Qd=2.01 -> Pd=11.05, Qd=2.01
% INFO    : Bus 140	: Pd=13.58, Qd=2.68 -> Pd=14.86, Qd=2.68
% INFO    : Bus 141	: Pd=0.0, Qd=0.0 -> Pd=0.00, Qd=0.00
% INFO    : Bus 142	: Pd=27.09, Qd=5.35 -> Pd=29.65, Qd=5.35
% INFO    : Bus 143	: Pd=21.07, Qd=4.01 -> Pd=23.06, Qd=4.01
% INFO    : Bus 144	: Pd=12.37, Qd=2.01 -> Pd=13.54, Qd=2.01
% INFO    : Bus 145	: Pd=10.83, Qd=2.21 -> Pd=11.85, Qd=2.21
% INFO    : Bus 146	: Pd=21.33, Qd=4.01 -> Pd=23.35, Qd=4.01
% INFO    : Bus 147	: Pd=216.4, Qd=42.8 -> Pd=236.86, Qd=42.80
% INFO    : Bus 148	: Pd=120.0, Qd=24.0 -> Pd=131.34, Qd=24.00
% INFO    : Bus 149	: Pd=0.0, Qd=0.0 -> Pd=0.00, Qd=0.00
% INFO    : Bus 150	: Pd=4.8, Qd=1.6 -> Pd=5.25, Qd=1.60
% INFO    : Bus 151	: Pd=24.0, Qd=8.0 -> Pd=26.27, Qd=8.00
% INFO    : Bus 152	: Pd=6.0, Qd=0.0 -> Pd=6.00, Qd=0.00
% INFO    : Bus 153	: Pd=4.0, Qd=1.6 -> Pd=4.38, Qd=1.60
% INFO    : Bus 154	: Pd=28.0, Qd=9.6 -> Pd=30.65, Qd=9.60
% INFO    : Bus 155	: Pd=12.0, Qd=4.0 -> Pd=13.13, Qd=4.00
% INFO    : Bus 156	: Pd=8.0, Qd=2.4 -> Pd=8.76, Qd=2.40
% INFO    : Bus 157	: Pd=32.0, Qd=10.4 -> Pd=35.02, Qd=10.40
% INFO    : Bus 158	: Pd=16.0, Qd=5.6 -> Pd=17.51, Qd=5.60
% INFO    : Bus 159	: Pd=8.0, Qd=2.4 -> Pd=8.76, Qd=2.40
% INFO    : Bus 160	: Pd=14.4, Qd=4.8 -> Pd=15.76, Qd=4.80
% INFO    : Bus 161	: Pd=32.0, Qd=10.4 -> Pd=35.02, Qd=10.40
% INFO    : Bus 162	: Pd=20.0, Qd=6.4 -> Pd=21.89, Qd=6.40
% INFO    : 
% INFO    : === Generator Setpoint Replacement Notes ===
% INFO    : Gen at bus 6	: Pg=794.0, Qg=180.81 -> Pg=883.0, Qg=172.0
% INFO    : Gen at bus 73	: Pg=447.0, Qg=85.84 -> Pg=398.0, Qg=150.0
% INFO    : Gen at bus 76	: Pg=1055.0, Qg=136.31 -> Pg=1248.0, Qg=66.0
% INFO    : Gen at bus 99	: Pg=130.9, Qg=5.21 -> Pg=143.0, Qg=48.0
% INFO    : Gen at bus 101	: Pg=82.0, Qg=30.34 -> Pg=83.0, Qg=50.0
% INFO    : Gen at bus 108	: Pg=551.12, Qg=155.82 -> Pg=599.0, Qg=44.0
% INFO    : Gen at bus 114	: Pg=131.0, Qg=22.29 -> Pg=140.0, Qg=55.0
% INFO    : Gen at bus 118	: Pg=173.0, Qg=59.75 -> Pg=173.0, Qg=102.0
% INFO    : Gen at bus 121	: Pg=620.0, Qg=150.89 -> Pg=684.0, Qg=226.0
% INFO    : Gen at bus 125	: Pg=2388.0, Qg=-22.94 -> Pg=2223.0, Qg=110.0
% INFO    : Gen at bus 130	: Pg=455.0, Qg=123.37 -> Pg=569.0, Qg=103.0
% INFO    : Gen at bus 131	: Pg=575.0, Qg=94.51 -> Pg=690.0, Qg=167.0
% INFO    : 
% INFO    : === Generator Reactive Capacity Atleast Setpoint Value Notes ===
% INFO    : Gen at bus 73	: Qg 150.0, Qmin -72.0, Qmax 267.0 -> Qmin -180.0, Qmax 267.0
% INFO    : Gen at bus 101	: Qg 50.0, Qmin -24.4, Qmax 38.6 -> Qmin -60.0, Qmax 60.0
% INFO    : Gen at bus 114	: Qg 55.0, Qmin -25.0, Qmax 33.0 -> Qmin -66.0, Qmax 66.0
% INFO    : Gen at bus 118	: Qg 102.0, Qmin -44.0, Qmax 95.0 -> Qmin -122.4, Qmax 122.4
% INFO    : Gen at bus 121	: Qg 226.0, Qmin -120.0, Qmax 250.0 -> Qmin -271.2, Qmax 250.0
% INFO    : 
% INFO    : === Generator Classification Notes ===
% INFO    : NUC    1   -    11.27
% INFO    : COW    4   -    60.69
% INFO    : NG     7   -    28.04
% INFO    : 
% INFO    : === Generator Active Capacity Stat Model Notes ===
% INFO    : Gen at bus 6 - NUC	: Pg=883.0, Pmax=1217.0 -> Pmax=1203   samples: 1
% INFO    : Gen at bus 73 - NG	: Pg=398.0, Pmax=566.0 -> Pmax=468   samples: 14
% INFO    : Gen at bus 76 - COW	: Pg=1248.0, Pmax=1282.0 -> Pmax=1274   samples: 8
% INFO    : Gen at bus 99 - NG	: Pg=143.0, Pmax=186.0 -> Pmax=229   samples: 7
% INFO    : Gen at bus 101 - NG	: Pg=83.0, Pmax=180.0 -> Pmax=167   samples: 8
% INFO    : Gen at bus 108 - COW	: Pg=599.0, Pmax=1151.0 -> Pmax=1842   samples: 11
% INFO    : Gen at bus 114 - NG	: Pg=140.0, Pmax=148.0 -> Pmax=199   samples: 3
% INFO    : Gen at bus 118 - NG	: Pg=173.0, Pmax=189.0 -> Pmax=175   samples: 24
% INFO    : Gen at bus 121 - COW	: Pg=684.0, Pmax=1005.0 -> Pmax=1660   samples: 1
% INFO    : Gen at bus 125 - COW	: Pg=2223.0, Pmax=2590.0 -> Pmax=2276   samples: 12
% WARNING : Failed to find a generator capacity within (569.0-2845.0) after 100 samples, using percent increase model
% INFO    : Gen at bus 130 - NG	: Pg=569.0, Pmax=591.0 -> Pmax=642   samples: 100
% WARNING : Failed to find a generator capacity within (690.0-3450.0) after 100 samples, using percent increase model
% INFO    : Gen at bus 131 - NG	: Pg=690.0, Pmax=580.0 -> Pmax=779   samples: 100
% INFO    : 
% INFO    : === Generator Active Capacity LB Model Notes ===
% INFO    : 
% INFO    : === Generator Reactive Capacity Atleast Max 50 Percent Active Model Notes ===
% INFO    : Gen at bus 6 - NUC	: Pmax 1203.0, Qmin -200.0, Qmax 400.0 -> Qmin -602.0, Qmax 602.0
% INFO    : Gen at bus 73 - NG	: Pmax 468.0, Qmin -180.0, Qmax 267.0 -> Qmin -234.0, Qmax 267.0
% INFO    : Gen at bus 76 - COW	: Pmax 1274.0, Qmin -170.0, Qmax 605.0 -> Qmin -637.0, Qmax 637.0
% INFO    : Gen at bus 99 - NG	: Pmax 229.0, Qmin -60.6, Qmax 75.6 -> Qmin -115.0, Qmax 115.0
% INFO    : Gen at bus 101 - NG	: Pmax 167.0, Qmin -60.0, Qmax 60.0 -> Qmin -84.0, Qmax 84.0
% INFO    : Gen at bus 108 - COW	: Pmax 1842.0, Qmin -576.0, Qmax 576.0 -> Qmin -921.0, Qmax 921.0
% INFO    : Gen at bus 114 - NG	: Pmax 199.0, Qmin -66.0, Qmax 66.0 -> Qmin -100.0, Qmax 100.0
% INFO    : Gen at bus 121 - COW	: Pmax 1660.0, Qmin -271.2, Qmax 250.0 -> Qmin -830.0, Qmax 830.0
% INFO    : Gen at bus 125 - COW	: Pmax 2276.0, Qmin -1099.0, Qmax 1295.0 -> Qmin -1138.0, Qmax 1295.0
% INFO    : Gen at bus 130 - NG	: Pmax 642.0, Qmin -144.0, Qmax 288.0 -> Qmin -321.0, Qmax 321.0
% INFO    : Gen at bus 131 - NG	: Pmax 779.0, Qmin -265.0, Qmax 290.0 -> Qmin -390.0, Qmax 390.0
% INFO    : 
% INFO    : === Generator Active Cost Stat Model Notes ===
% INFO    : Updated Generator Cost: NUC - 0.0 0.207675 0.0 -> 0 0.201355018459 0
% INFO    : Updated Generator Cost: NG - 0.0 1.12426 0.0 -> 0 1.28790057201 0
% INFO    : Updated Generator Cost: COW - 0.0 0.245174 0.0 -> 0 0.890382335899 0
% INFO    : Updated Generator Cost: NG - 0.0 0.456083 0.0 -> 0 0.928890258423 0
% INFO    : Updated Generator Cost: NG - 0.0 1.127826 0.0 -> 0 0.823494821679 0
% INFO    : Updated Generator Cost: COW - 0.0 0.743881 0.0 -> 0 1.28174829247 0
% INFO    : Updated Generator Cost: NG - 0.0 0.65631 0.0 -> 0 1.06045693633 0
% INFO    : Updated Generator Cost: NG - 0.0 1.106559 0.0 -> 0 1.35303877695 0
% INFO    : Updated Generator Cost: COW - 0.0 0.74641 0.0 -> 0 0.712216973509 0
% INFO    : Updated Generator Cost: COW - 0.0 0.569682 0.0 -> 0 0.5902807638 0
% INFO    : Updated Generator Cost: NG - 0.0 0.914188 0.0 -> 0 1.10985650152 0
% INFO    : Updated Generator Cost: NG - 0.0 0.881792 0.0 -> 0 0.776444461793 0
% INFO    : 
% INFO    : === Writing Matpower Case File Notes ===
